sisyphean-power-and-light/network/results/scenarios/high_der_2030/pvsystems.dss
! Scenario PV Systems

New PVSystem.pv_XFMR-000001 bus1=bus_XFMR-000001_sec phases=1 kV=0.24 kVA=327.7 Pmpp=327.7 irradiance=1 pf=1
New PVSystem.pv_XFMR-000003 bus1=bus_XFMR-000003_sec phases=1 kV=0.24 kVA=257.5 Pmpp=257.5 irradiance=1 pf=1
New PVSystem.pv_XFMR-000005 bus1=bus_XFMR-000005_sec phases=1 kV=0.24 kVA=213.6 Pmpp=213.6 irradiance=1 pf=1
New PVSystem.pv_XFMR-000006 bus1=bus_XFMR-000006_sec phases=1 kV=0.24 kVA=2741.1 Pmpp=2741.1 irradiance=1 pf=1
New PVSystem.pv_XFMR-000009 bus1=bus_XFMR-000009_sec phases=1 kV=0.24 kVA=138.6 Pmpp=138.6 irradiance=1 pf=1
New PVSystem.pv_XFMR-000010 bus1=bus_XFMR-000010_sec phases=1 kV=0.24 kVA=318.0 Pmpp=318.0 irradiance=1 pf=1
New PVSystem.pv_XFMR-000012 bus1=bus_XFMR-000012_sec phases=1 kV=0.24 kVA=276.0 Pmpp=276.0 irradiance=1 pf=1
New PVSystem.pv_XFMR-000013 bus1=bus_XFMR-000013_sec phases=1 kV=0.24 kVA=151.2 Pmpp=151.2 irradiance=1 pf=1
New PVSystem.pv_XFMR-000014 bus1=bus_XFMR-000014_sec phases=1 kV=0.24 kVA=4673.8 Pmpp=4673.8 irradiance=1 pf=1
New PVSystem.pv_XFMR-000015 bus1=bus_XFMR-000015_sec phases=1 kV=0.24 kVA=642.1 Pmpp=642.1 irradiance=1 pf=1
New PVSystem.pv_XFMR-000016 bus1=bus_XFMR-000016_sec phases=1 kV=0.24 kVA=277.2 Pmpp=277.2 irradiance=1 pf=1
New PVSystem.pv_XFMR-000017 bus1=bus_XFMR-000017_sec phases=1 kV=0.24 kVA=1002.0 Pmpp=1002.0 irradiance=1 pf=1
New PVSystem.pv_XFMR-000018 bus1=bus_XFMR-000018_sec phases=1 kV=0.24 kVA=435.1 Pmpp=435.1 irradiance=1 pf=1
New PVSystem.pv_XFMR-000020 bus1=bus_XFMR-000020_sec phases=1 kV=0.24 kVA=172.8 Pmpp=172.8 irradiance=1 pf=1
New PVSystem.pv_XFMR-000021 bus1=bus_XFMR-000021_sec phases=1 kV=0.24 kVA=2626.0 Pmpp=2626.0 irradiance=1 pf=1
New PVSystem.pv_XFMR-000022 bus1=bus_XFMR-000022_sec phases=1 kV=0.24 kVA=212.8 Pmpp=212.8 irradiance=1 pf=1
New PVSystem.pv_XFMR-000025 bus1=bus_XFMR-000025_sec phases=1 kV=0.24 kVA=345.0 Pmpp=345.0 irradiance=1 pf=1
New PVSystem.pv_XFMR-000026 bus1=bus_XFMR-000026_sec phases=1 kV=0.24 kVA=51.2 Pmpp=51.2 irradiance=1 pf=1
New PVSystem.pv_XFMR-000027 bus1=bus_XFMR-000027_sec phases=1 kV=0.24 kVA=480.8 Pmpp=480.8 irradiance=1 pf=1
New PVSystem.pv_XFMR-000029 bus1=bus_XFMR-000029_sec phases=1 kV=0.24 kVA=336.4 Pmpp=336.4 irradiance=1 pf=1
New PVSystem.pv_XFMR-000036 bus1=bus_XFMR-000036_sec phases=1 kV=0.24 kVA=880.2 Pmpp=880.2 irradiance=1 pf=1
New PVSystem.pv_XFMR-000037 bus1=bus_XFMR-000037_sec phases=1 kV=0.24 kVA=398.7 Pmpp=398.7 irradiance=1 pf=1
New PVSystem.pv_XFMR-000038 bus1=bus_XFMR-000038_sec phases=1 kV=0.24 kVA=117.6 Pmpp=117.6 irradiance=1 pf=1
New PVSystem.pv_XFMR-000040 bus1=bus_XFMR-000040_sec phases=1 kV=0.24 kVA=125.4 Pmpp=125.4 irradiance=1 pf=1
New PVSystem.pv_XFMR-000042 bus1=bus_XFMR-000042_sec phases=1 kV=0.24 kVA=138.0 Pmpp=138.0 irradiance=1 pf=1
New PVSystem.pv_XFMR-000043 bus1=bus_XFMR-000043_sec phases=1 kV=0.24 kVA=156.2 Pmpp=156.2 irradiance=1 pf=1
New PVSystem.pv_XFMR-000045 bus1=bus_XFMR-000045_sec phases=1 kV=0.24 kVA=237.8 Pmpp=237.8 irradiance=1 pf=1
New PVSystem.pv_XFMR-000046 bus1=bus_XFMR-000046_sec phases=1 kV=0.24 kVA=163.4 Pmpp=163.4 irradiance=1 pf=1
New PVSystem.pv_XFMR-000048 bus1=bus_XFMR-000048_sec phases=1 kV=0.24 kVA=240.0 Pmpp=240.0 irradiance=1 pf=1
New PVSystem.pv_XFMR-000049 bus1=bus_XFMR-000049_sec phases=1 kV=0.24 kVA=2262.5 Pmpp=2262.5 irradiance=1 pf=1
New PVSystem.pv_XFMR-000053 bus1=bus_XFMR-000053_sec phases=1 kV=0.24 kVA=382.7 Pmpp=382.7 irradiance=1 pf=1
New PVSystem.pv_XFMR-000054 bus1=bus_XFMR-000054_sec phases=1 kV=0.24 kVA=123.2 Pmpp=123.2 irradiance=1 pf=1
New PVSystem.pv_XFMR-000055 bus1=bus_XFMR-000055_sec phases=1 kV=0.24 kVA=120.0 Pmpp=120.0 irradiance=1 pf=1
New PVSystem.pv_XFMR-000057 bus1=bus_XFMR-000057_sec phases=1 kV=0.24 kVA=326.7 Pmpp=326.7 irradiance=1 pf=1
New PVSystem.pv_XFMR-000058 bus1=bus_XFMR-000058_sec phases=1 kV=0.24 kVA=109.2 Pmpp=109.2 irradiance=1 pf=1
New PVSystem.pv_XFMR-000060 bus1=bus_XFMR-000060_sec phases=1 kV=0.24 kVA=339.0 Pmpp=339.0 irradiance=1 pf=1
New PVSystem.pv_XFMR-000061 bus1=bus_XFMR-000061_sec phases=1 kV=0.24 kVA=2737.0 Pmpp=2737.0 irradiance=1 pf=1
New PVSystem.pv_XFMR-000062 bus1=bus_XFMR-000062_sec phases=1 kV=0.24 kVA=132.6 Pmpp=132.6 irradiance=1 pf=1
New PVSystem.pv_XFMR-000063 bus1=bus_XFMR-000063_sec phases=1 kV=0.24 kVA=133.0 Pmpp=133.0 irradiance=1 pf=1
New PVSystem.pv_XFMR-000064 bus1=bus_XFMR-000064_sec phases=1 kV=0.24 kVA=81.6 Pmpp=81.6 irradiance=1 pf=1
New PVSystem.pv_XFMR-000065 bus1=bus_XFMR-000065_sec phases=1 kV=0.24 kVA=370.4 Pmpp=370.4 irradiance=1 pf=1
New PVSystem.pv_XFMR-000066 bus1=bus_XFMR-000066_sec phases=1 kV=0.24 kVA=105.3 Pmpp=105.3 irradiance=1 pf=1
New PVSystem.pv_XFMR-000067 bus1=bus_XFMR-000067_sec phases=1 kV=0.24 kVA=1970.7 Pmpp=1970.7 irradiance=1 pf=1
New PVSystem.pv_XFMR-000068 bus1=bus_XFMR-000068_sec phases=1 kV=0.24 kVA=105.0 Pmpp=105.0 irradiance=1 pf=1
New PVSystem.pv_XFMR-000069 bus1=bus_XFMR-000069_sec phases=1 kV=0.24 kVA=80.0 Pmpp=80.0 irradiance=1 pf=1
New PVSystem.pv_XFMR-000075 bus1=bus_XFMR-000075_sec phases=1 kV=0.24 kVA=337.6 Pmpp=337.6 irradiance=1 pf=1
New PVSystem.pv_XFMR-000078 bus1=bus_XFMR-000078_sec phases=1 kV=0.24 kVA=173.6 Pmpp=173.6 irradiance=1 pf=1
New PVSystem.pv_XFMR-000079 bus1=bus_XFMR-000079_sec phases=1 kV=0.24 kVA=7950.0 Pmpp=7950.0 irradiance=1 pf=1
New PVSystem.pv_XFMR-000083 bus1=bus_XFMR-000083_sec phases=1 kV=0.24 kVA=8176.5 Pmpp=8176.5 irradiance=1 pf=1
New PVSystem.pv_XFMR-000084 bus1=bus_XFMR-000084_sec phases=1 kV=0.24 kVA=4086.1 Pmpp=4086.1 irradiance=1 pf=1
New PVSystem.pv_XFMR-000085 bus1=bus_XFMR-000085_sec phases=1 kV=0.24 kVA=173.6 Pmpp=173.6 irradiance=1 pf=1
New PVSystem.pv_XFMR-000087 bus1=bus_XFMR-000087_sec phases=1 kV=0.24 kVA=118.0 Pmpp=118.0 irradiance=1 pf=1
New PVSystem.pv_XFMR-000089 bus1=bus_XFMR-000089_sec phases=1 kV=0.24 kVA=3520.8 Pmpp=3520.8 irradiance=1 pf=1
New PVSystem.pv_XFMR-000090 bus1=bus_XFMR-000090_sec phases=1 kV=0.24 kVA=163.3 Pmpp=163.3 irradiance=1 pf=1
New PVSystem.pv_XFMR-000091 bus1=bus_XFMR-000091_sec phases=1 kV=0.24 kVA=702.5 Pmpp=702.5 irradiance=1 pf=1
New PVSystem.pv_XFMR-000092 bus1=bus_XFMR-000092_sec phases=1 kV=0.24 kVA=200.0 Pmpp=200.0 irradiance=1 pf=1
New PVSystem.pv_XFMR-000095 bus1=bus_XFMR-000095_sec phases=1 kV=0.24 kVA=2502.0 Pmpp=2502.0 irradiance=1 pf=1
New PVSystem.pv_XFMR-000096 bus1=bus_XFMR-000096_sec phases=1 kV=0.24 kVA=1355.2 Pmpp=1355.2 irradiance=1 pf=1
New PVSystem.pv_XFMR-000097 bus1=bus_XFMR-000097_sec phases=1 kV=0.24 kVA=471.9 Pmpp=471.9 irradiance=1 pf=1
New PVSystem.pv_XFMR-000099 bus1=bus_XFMR-000099_sec phases=1 kV=0.24 kVA=188.1 Pmpp=188.1 irradiance=1 pf=1
New PVSystem.pv_XFMR-000102 bus1=bus_XFMR-000102_sec phases=1 kV=0.24 kVA=1795.5 Pmpp=1795.5 irradiance=1 pf=1
New PVSystem.pv_XFMR-000104 bus1=bus_XFMR-000104_sec phases=1 kV=0.24 kVA=445.3 Pmpp=445.3 irradiance=1 pf=1
New PVSystem.pv_XFMR-000106 bus1=bus_XFMR-000106_sec phases=1 kV=0.24 kVA=67.5 Pmpp=67.5 irradiance=1 pf=1
New PVSystem.pv_XFMR-000107 bus1=bus_XFMR-000107_sec phases=1 kV=0.24 kVA=120.6 Pmpp=120.6 irradiance=1 pf=1
New PVSystem.pv_XFMR-000108 bus1=bus_XFMR-000108_sec phases=1 kV=0.24 kVA=191.4 Pmpp=191.4 irradiance=1 pf=1
New PVSystem.pv_XFMR-000109 bus1=bus_XFMR-000109_sec phases=1 kV=0.24 kVA=88.0 Pmpp=88.0 irradiance=1 pf=1
New PVSystem.pv_XFMR-000111 bus1=bus_XFMR-000111_sec phases=1 kV=0.24 kVA=3428.6 Pmpp=3428.6 irradiance=1 pf=1
New PVSystem.pv_XFMR-000112 bus1=bus_XFMR-000112_sec phases=1 kV=0.24 kVA=13386.0 Pmpp=13386.0 irradiance=1 pf=1
New PVSystem.pv_XFMR-000115 bus1=bus_XFMR-000115_sec phases=1 kV=0.24 kVA=546.8 Pmpp=546.8 irradiance=1 pf=1
New PVSystem.pv_XFMR-000116 bus1=bus_XFMR-000116_sec phases=1 kV=0.24 kVA=162.0 Pmpp=162.0 irradiance=1 pf=1
New PVSystem.pv_XFMR-000117 bus1=bus_XFMR-000117_sec phases=1 kV=0.24 kVA=616.0 Pmpp=616.0 irradiance=1 pf=1
New PVSystem.pv_XFMR-000119 bus1=bus_XFMR-000119_sec phases=1 kV=0.24 kVA=228.8 Pmpp=228.8 irradiance=1 pf=1
New PVSystem.pv_XFMR-000120 bus1=bus_XFMR-000120_sec phases=1 kV=0.24 kVA=278.4 Pmpp=278.4 irradiance=1 pf=1
New PVSystem.pv_XFMR-000125 bus1=bus_XFMR-000125_sec phases=1 kV=0.24 kVA=215.0 Pmpp=215.0 irradiance=1 pf=1
New PVSystem.pv_XFMR-000126 bus1=bus_XFMR-000126_sec phases=1 kV=0.24 kVA=227.7 Pmpp=227.7 irradiance=1 pf=1
New PVSystem.pv_XFMR-000128 bus1=bus_XFMR-000128_sec phases=1 kV=0.24 kVA=131.2 Pmpp=131.2 irradiance=1 pf=1
New PVSystem.pv_XFMR-000129 bus1=bus_XFMR-000129_sec phases=1 kV=0.24 kVA=320.4 Pmpp=320.4 irradiance=1 pf=1
New PVSystem.pv_XFMR-000131 bus1=bus_XFMR-000131_sec phases=1 kV=0.24 kVA=1783.0 Pmpp=1783.0 irradiance=1 pf=1
New PVSystem.pv_XFMR-000132 bus1=bus_XFMR-000132_sec phases=1 kV=0.24 kVA=12537.5 Pmpp=12537.5 irradiance=1 pf=1
New PVSystem.pv_XFMR-000133 bus1=bus_XFMR-000133_sec phases=1 kV=0.24 kVA=3829.6 Pmpp=3829.6 irradiance=1 pf=1
New PVSystem.pv_XFMR-000134 bus1=bus_XFMR-000134_sec phases=1 kV=0.24 kVA=176.0 Pmpp=176.0 irradiance=1 pf=1
New PVSystem.pv_XFMR-000135 bus1=bus_XFMR-000135_sec phases=1 kV=0.24 kVA=108.0 Pmpp=108.0 irradiance=1 pf=1
New PVSystem.pv_XFMR-000137 bus1=bus_XFMR-000137_sec phases=1 kV=0.24 kVA=288.3 Pmpp=288.3 irradiance=1 pf=1
New PVSystem.pv_XFMR-000139 bus1=bus_XFMR-000139_sec phases=1 kV=0.24 kVA=8334.9 Pmpp=8334.9 irradiance=1 pf=1
New PVSystem.pv_XFMR-000140 bus1=bus_XFMR-000140_sec phases=1 kV=0.24 kVA=479.6 Pmpp=479.6 irradiance=1 pf=1
New PVSystem.pv_XFMR-000141 bus1=bus_XFMR-000141_sec phases=1 kV=0.24 kVA=9678.6 Pmpp=9678.6 irradiance=1 pf=1
New PVSystem.pv_XFMR-000142 bus1=bus_XFMR-000142_sec phases=1 kV=0.24 kVA=239.0 Pmpp=239.0 irradiance=1 pf=1
New PVSystem.pv_XFMR-000144 bus1=bus_XFMR-000144_sec phases=1 kV=0.24 kVA=1858.4 Pmpp=1858.4 irradiance=1 pf=1
New PVSystem.pv_XFMR-000145 bus1=bus_XFMR-000145_sec phases=1 kV=0.24 kVA=486.9 Pmpp=486.9 irradiance=1 pf=1
New PVSystem.pv_XFMR-000148 bus1=bus_XFMR-000148_sec phases=1 kV=0.24 kVA=709.0 Pmpp=709.0 irradiance=1 pf=1
New PVSystem.pv_XFMR-000149 bus1=bus_XFMR-000149_sec phases=1 kV=0.24 kVA=91.8 Pmpp=91.8 irradiance=1 pf=1
New PVSystem.pv_XFMR-000155 bus1=bus_XFMR-000155_sec phases=1 kV=0.24 kVA=240.8 Pmpp=240.8 irradiance=1 pf=1
New PVSystem.pv_XFMR-000156 bus1=bus_XFMR-000156_sec phases=1 kV=0.24 kVA=924.0 Pmpp=924.0 irradiance=1 pf=1
New PVSystem.pv_XFMR-000157 bus1=bus_XFMR-000157_sec phases=1 kV=0.24 kVA=188.0 Pmpp=188.0 irradiance=1 pf=1
New PVSystem.pv_XFMR-000158 bus1=bus_XFMR-000158_sec phases=1 kV=0.24 kVA=6115.2 Pmpp=6115.2 irradiance=1 pf=1
New PVSystem.pv_XFMR-000160 bus1=bus_XFMR-000160_sec phases=1 kV=0.24 kVA=133.4 Pmpp=133.4 irradiance=1 pf=1
New PVSystem.pv_XFMR-000161 bus1=bus_XFMR-000161_sec phases=1 kV=0.24 kVA=132.3 Pmpp=132.3 irradiance=1 pf=1
New PVSystem.pv_XFMR-000164 bus1=bus_XFMR-000164_sec phases=1 kV=0.24 kVA=9089.0 Pmpp=9089.0 irradiance=1 pf=1
New PVSystem.pv_XFMR-000165 bus1=bus_XFMR-000165_sec phases=1 kV=0.24 kVA=228.0 Pmpp=228.0 irradiance=1 pf=1
New PVSystem.pv_XFMR-000166 bus1=bus_XFMR-000166_sec phases=1 kV=0.24 kVA=243.0 Pmpp=243.0 irradiance=1 pf=1
New PVSystem.pv_XFMR-000169 bus1=bus_XFMR-000169_sec phases=1 kV=0.24 kVA=315.2 Pmpp=315.2 irradiance=1 pf=1
New PVSystem.pv_XFMR-000170 bus1=bus_XFMR-000170_sec phases=1 kV=0.24 kVA=88.0 Pmpp=88.0 irradiance=1 pf=1
New PVSystem.pv_XFMR-000171 bus1=bus_XFMR-000171_sec phases=1 kV=0.24 kVA=359.3 Pmpp=359.3 irradiance=1 pf=1
New PVSystem.pv_XFMR-000172 bus1=bus_XFMR-000172_sec phases=1 kV=0.24 kVA=156.6 Pmpp=156.6 irradiance=1 pf=1
New PVSystem.pv_XFMR-000173 bus1=bus_XFMR-000173_sec phases=1 kV=0.24 kVA=4905.0 Pmpp=4905.0 irradiance=1 pf=1
New PVSystem.pv_XFMR-000175 bus1=bus_XFMR-000175_sec phases=1 kV=0.24 kVA=113.1 Pmpp=113.1 irradiance=1 pf=1
New PVSystem.pv_XFMR-000178 bus1=bus_XFMR-000178_sec phases=1 kV=0.24 kVA=483.0 Pmpp=483.0 irradiance=1 pf=1
New PVSystem.pv_XFMR-000179 bus1=bus_XFMR-000179_sec phases=1 kV=0.24 kVA=3940.2 Pmpp=3940.2 irradiance=1 pf=1
New PVSystem.pv_XFMR-000180 bus1=bus_XFMR-000180_sec phases=1 kV=0.24 kVA=10811.0 Pmpp=10811.0 irradiance=1 pf=1
New PVSystem.pv_XFMR-000181 bus1=bus_XFMR-000181_sec phases=1 kV=0.24 kVA=138.6 Pmpp=138.6 irradiance=1 pf=1
New PVSystem.pv_XFMR-000183 bus1=bus_XFMR-000183_sec phases=1 kV=0.24 kVA=1805.4 Pmpp=1805.4 irradiance=1 pf=1
New PVSystem.pv_XFMR-000184 bus1=bus_XFMR-000184_sec phases=1 kV=0.24 kVA=8683.6 Pmpp=8683.6 irradiance=1 pf=1
New PVSystem.pv_XFMR-000185 bus1=bus_XFMR-000185_sec phases=1 kV=0.24 kVA=252.0 Pmpp=252.0 irradiance=1 pf=1
New PVSystem.pv_XFMR-000187 bus1=bus_XFMR-000187_sec phases=1 kV=0.24 kVA=5807.1 Pmpp=5807.1 irradiance=1 pf=1
New PVSystem.pv_XFMR-000188 bus1=bus_XFMR-000188_sec phases=1 kV=0.24 kVA=1154.9 Pmpp=1154.9 irradiance=1 pf=1
New PVSystem.pv_XFMR-000194 bus1=bus_XFMR-000194_sec phases=1 kV=0.24 kVA=178.5 Pmpp=178.5 irradiance=1 pf=1
New PVSystem.pv_XFMR-000195 bus1=bus_XFMR-000195_sec phases=1 kV=0.24 kVA=202.4 Pmpp=202.4 irradiance=1 pf=1
New PVSystem.pv_XFMR-000196 bus1=bus_XFMR-000196_sec phases=1 kV=0.24 kVA=569.6 Pmpp=569.6 irradiance=1 pf=1
New PVSystem.pv_XFMR-000198 bus1=bus_XFMR-000198_sec phases=1 kV=0.24 kVA=2880.0 Pmpp=2880.0 irradiance=1 pf=1
New PVSystem.pv_XFMR-000199 bus1=bus_XFMR-000199_sec phases=1 kV=0.24 kVA=356.4 Pmpp=356.4 irradiance=1 pf=1
New PVSystem.pv_XFMR-000202 bus1=bus_XFMR-000202_sec phases=1 kV=0.24 kVA=183.6 Pmpp=183.6 irradiance=1 pf=1
New PVSystem.pv_XFMR-000204 bus1=bus_XFMR-000204_sec phases=1 kV=0.24 kVA=605.8 Pmpp=605.8 irradiance=1 pf=1
New PVSystem.pv_XFMR-000206 bus1=bus_XFMR-000206_sec phases=1 kV=0.24 kVA=202.5 Pmpp=202.5 irradiance=1 pf=1
New PVSystem.pv_XFMR-000208 bus1=bus_XFMR-000208_sec phases=1 kV=0.24 kVA=344.8 Pmpp=344.8 irradiance=1 pf=1
New PVSystem.pv_XFMR-000210 bus1=bus_XFMR-000210_sec phases=1 kV=0.24 kVA=211.2 Pmpp=211.2 irradiance=1 pf=1
New PVSystem.pv_XFMR-000212 bus1=bus_XFMR-000212_sec phases=1 kV=0.24 kVA=332.5 Pmpp=332.5 irradiance=1 pf=1
New PVSystem.pv_XFMR-000217 bus1=bus_XFMR-000217_sec phases=1 kV=0.24 kVA=297.0 Pmpp=297.0 irradiance=1 pf=1
New PVSystem.pv_XFMR-000219 bus1=bus_XFMR-000219_sec phases=1 kV=0.24 kVA=153.6 Pmpp=153.6 irradiance=1 pf=1
New PVSystem.pv_XFMR-000221 bus1=bus_XFMR-000221_sec phases=1 kV=0.24 kVA=103.5 Pmpp=103.5 irradiance=1 pf=1
New PVSystem.pv_XFMR-000223 bus1=bus_XFMR-000223_sec phases=1 kV=0.24 kVA=291.8 Pmpp=291.8 irradiance=1 pf=1
New PVSystem.pv_XFMR-000225 bus1=bus_XFMR-000225_sec phases=1 kV=0.24 kVA=590.4 Pmpp=590.4 irradiance=1 pf=1
New PVSystem.pv_XFMR-000228 bus1=bus_XFMR-000228_sec phases=1 kV=0.24 kVA=284.9 Pmpp=284.9 irradiance=1 pf=1
New PVSystem.pv_XFMR-000230 bus1=bus_XFMR-000230_sec phases=1 kV=0.24 kVA=404.6 Pmpp=404.6 irradiance=1 pf=1
New PVSystem.pv_XFMR-000232 bus1=bus_XFMR-000232_sec phases=1 kV=0.24 kVA=178.2 Pmpp=178.2 irradiance=1 pf=1
New PVSystem.pv_XFMR-000238 bus1=bus_XFMR-000238_sec phases=1 kV=0.24 kVA=232.7 Pmpp=232.7 irradiance=1 pf=1
New PVSystem.pv_XFMR-000239 bus1=bus_XFMR-000239_sec phases=1 kV=0.24 kVA=221.0 Pmpp=221.0 irradiance=1 pf=1
New PVSystem.pv_XFMR-000245 bus1=bus_XFMR-000245_sec phases=1 kV=0.24 kVA=82.8 Pmpp=82.8 irradiance=1 pf=1
New PVSystem.pv_XFMR-000247 bus1=bus_XFMR-000247_sec phases=1 kV=0.24 kVA=9302.3 Pmpp=9302.3 irradiance=1 pf=1
New PVSystem.pv_XFMR-000250 bus1=bus_XFMR-000250_sec phases=1 kV=0.24 kVA=176.0 Pmpp=176.0 irradiance=1 pf=1
New PVSystem.pv_XFMR-000252 bus1=bus_XFMR-000252_sec phases=1 kV=0.24 kVA=163.8 Pmpp=163.8 irradiance=1 pf=1
New PVSystem.pv_XFMR-000253 bus1=bus_XFMR-000253_sec phases=1 kV=0.24 kVA=9395.5 Pmpp=9395.5 irradiance=1 pf=1
New PVSystem.pv_XFMR-000255 bus1=bus_XFMR-000255_sec phases=1 kV=0.24 kVA=196.2 Pmpp=196.2 irradiance=1 pf=1
New PVSystem.pv_XFMR-000260 bus1=bus_XFMR-000260_sec phases=1 kV=0.24 kVA=257.6 Pmpp=257.6 irradiance=1 pf=1
New PVSystem.pv_XFMR-000265 bus1=bus_XFMR-000265_sec phases=1 kV=0.24 kVA=349.8 Pmpp=349.8 irradiance=1 pf=1
New PVSystem.pv_XFMR-000266 bus1=bus_XFMR-000266_sec phases=1 kV=0.24 kVA=117.6 Pmpp=117.6 irradiance=1 pf=1
New PVSystem.pv_XFMR-000268 bus1=bus_XFMR-000268_sec phases=1 kV=0.24 kVA=2259.9 Pmpp=2259.9 irradiance=1 pf=1
New PVSystem.pv_XFMR-000272 bus1=bus_XFMR-000272_sec phases=1 kV=0.24 kVA=283.2 Pmpp=283.2 irradiance=1 pf=1
New PVSystem.pv_XFMR-000273 bus1=bus_XFMR-000273_sec phases=1 kV=0.24 kVA=108.0 Pmpp=108.0 irradiance=1 pf=1
New PVSystem.pv_XFMR-000274 bus1=bus_XFMR-000274_sec phases=1 kV=0.24 kVA=483.0 Pmpp=483.0 irradiance=1 pf=1
New PVSystem.pv_XFMR-000275 bus1=bus_XFMR-000275_sec phases=1 kV=0.24 kVA=476.7 Pmpp=476.7 irradiance=1 pf=1
New PVSystem.pv_XFMR-000277 bus1=bus_XFMR-000277_sec phases=1 kV=0.24 kVA=179.4 Pmpp=179.4 irradiance=1 pf=1
New PVSystem.pv_XFMR-000278 bus1=bus_XFMR-000278_sec phases=1 kV=0.24 kVA=133.4 Pmpp=133.4 irradiance=1 pf=1
New PVSystem.pv_XFMR-000280 bus1=bus_XFMR-000280_sec phases=1 kV=0.24 kVA=508.4 Pmpp=508.4 irradiance=1 pf=1
New PVSystem.pv_XFMR-000282 bus1=bus_XFMR-000282_sec phases=1 kV=0.24 kVA=204.7 Pmpp=204.7 irradiance=1 pf=1
New PVSystem.pv_XFMR-000284 bus1=bus_XFMR-000284_sec phases=1 kV=0.24 kVA=5542.5 Pmpp=5542.5 irradiance=1 pf=1
New PVSystem.pv_XFMR-000287 bus1=bus_XFMR-000287_sec phases=1 kV=0.24 kVA=153.4 Pmpp=153.4 irradiance=1 pf=1
New PVSystem.pv_XFMR-000290 bus1=bus_XFMR-000290_sec phases=1 kV=0.24 kVA=297.0 Pmpp=297.0 irradiance=1 pf=1
New PVSystem.pv_XFMR-000291 bus1=bus_XFMR-000291_sec phases=1 kV=0.24 kVA=108.1 Pmpp=108.1 irradiance=1 pf=1
New PVSystem.pv_XFMR-000292 bus1=bus_XFMR-000292_sec phases=1 kV=0.24 kVA=580.4 Pmpp=580.4 irradiance=1 pf=1
New PVSystem.pv_XFMR-000293 bus1=bus_XFMR-000293_sec phases=1 kV=0.24 kVA=306.2 Pmpp=306.2 irradiance=1 pf=1
New PVSystem.pv_XFMR-000294 bus1=bus_XFMR-000294_sec phases=1 kV=0.24 kVA=375.9 Pmpp=375.9 irradiance=1 pf=1
New PVSystem.pv_XFMR-000297 bus1=bus_XFMR-000297_sec phases=1 kV=0.24 kVA=254.8 Pmpp=254.8 irradiance=1 pf=1
New PVSystem.pv_XFMR-000299 bus1=bus_XFMR-000299_sec phases=1 kV=0.24 kVA=5474.2 Pmpp=5474.2 irradiance=1 pf=1
New PVSystem.pv_XFMR-000304 bus1=bus_XFMR-000304_sec phases=1 kV=0.24 kVA=127.4 Pmpp=127.4 irradiance=1 pf=1
New PVSystem.pv_XFMR-000305 bus1=bus_XFMR-000305_sec phases=1 kV=0.24 kVA=285.0 Pmpp=285.0 irradiance=1 pf=1
New PVSystem.pv_XFMR-000306 bus1=bus_XFMR-000306_sec phases=1 kV=0.24 kVA=325.2 Pmpp=325.2 irradiance=1 pf=1
New PVSystem.pv_XFMR-000309 bus1=bus_XFMR-000309_sec phases=1 kV=0.24 kVA=62.7 Pmpp=62.7 irradiance=1 pf=1
New PVSystem.pv_XFMR-000310 bus1=bus_XFMR-000310_sec phases=1 kV=0.24 kVA=96.8 Pmpp=96.8 irradiance=1 pf=1
New PVSystem.pv_XFMR-000311 bus1=bus_XFMR-000311_sec phases=1 kV=0.24 kVA=6803.0 Pmpp=6803.0 irradiance=1 pf=1
New PVSystem.pv_XFMR-000312 bus1=bus_XFMR-000312_sec phases=1 kV=0.24 kVA=200.6 Pmpp=200.6 irradiance=1 pf=1
New PVSystem.pv_XFMR-000313 bus1=bus_XFMR-000313_sec phases=1 kV=0.24 kVA=144.0 Pmpp=144.0 irradiance=1 pf=1
New PVSystem.pv_XFMR-000315 bus1=bus_XFMR-000315_sec phases=1 kV=0.24 kVA=464.0 Pmpp=464.0 irradiance=1 pf=1
New PVSystem.pv_XFMR-000316 bus1=bus_XFMR-000316_sec phases=1 kV=0.24 kVA=84.0 Pmpp=84.0 irradiance=1 pf=1
New PVSystem.pv_XFMR-000319 bus1=bus_XFMR-000319_sec phases=1 kV=0.24 kVA=232.8 Pmpp=232.8 irradiance=1 pf=1
New PVSystem.pv_XFMR-000320 bus1=bus_XFMR-000320_sec phases=1 kV=0.24 kVA=6143.5 Pmpp=6143.5 irradiance=1 pf=1
New PVSystem.pv_XFMR-000321 bus1=bus_XFMR-000321_sec phases=1 kV=0.24 kVA=292.1 Pmpp=292.1 irradiance=1 pf=1
New PVSystem.pv_XFMR-000323 bus1=bus_XFMR-000323_sec phases=1 kV=0.24 kVA=8673.1 Pmpp=8673.1 irradiance=1 pf=1
New PVSystem.pv_XFMR-000325 bus1=bus_XFMR-000325_sec phases=1 kV=0.24 kVA=432.4 Pmpp=432.4 irradiance=1 pf=1
New PVSystem.pv_XFMR-000326 bus1=bus_XFMR-000326_sec phases=1 kV=0.24 kVA=242.4 Pmpp=242.4 irradiance=1 pf=1
New PVSystem.pv_XFMR-000329 bus1=bus_XFMR-000329_sec phases=1 kV=0.24 kVA=186.0 Pmpp=186.0 irradiance=1 pf=1
New PVSystem.pv_XFMR-000330 bus1=bus_XFMR-000330_sec phases=1 kV=0.24 kVA=222.6 Pmpp=222.6 irradiance=1 pf=1
New PVSystem.pv_XFMR-000331 bus1=bus_XFMR-000331_sec phases=1 kV=0.24 kVA=6095.8 Pmpp=6095.8 irradiance=1 pf=1
New PVSystem.pv_XFMR-000335 bus1=bus_XFMR-000335_sec phases=1 kV=0.24 kVA=265.6 Pmpp=265.6 irradiance=1 pf=1
New PVSystem.pv_XFMR-000336 bus1=bus_XFMR-000336_sec phases=1 kV=0.24 kVA=102.0 Pmpp=102.0 irradiance=1 pf=1
New PVSystem.pv_XFMR-000337 bus1=bus_XFMR-000337_sec phases=1 kV=0.24 kVA=406.6 Pmpp=406.6 irradiance=1 pf=1
New PVSystem.pv_XFMR-000339 bus1=bus_XFMR-000339_sec phases=1 kV=0.24 kVA=333.6 Pmpp=333.6 irradiance=1 pf=1
New PVSystem.pv_XFMR-000341 bus1=bus_XFMR-000341_sec phases=1 kV=0.24 kVA=298.8 Pmpp=298.8 irradiance=1 pf=1
New PVSystem.pv_XFMR-000342 bus1=bus_XFMR-000342_sec phases=1 kV=0.24 kVA=135.3 Pmpp=135.3 irradiance=1 pf=1
New PVSystem.pv_XFMR-000346 bus1=bus_XFMR-000346_sec phases=1 kV=0.24 kVA=136.0 Pmpp=136.0 irradiance=1 pf=1
New PVSystem.pv_XFMR-000349 bus1=bus_XFMR-000349_sec phases=1 kV=0.24 kVA=209.3 Pmpp=209.3 irradiance=1 pf=1
New PVSystem.pv_XFMR-000350 bus1=bus_XFMR-000350_sec phases=1 kV=0.24 kVA=189.6 Pmpp=189.6 irradiance=1 pf=1
New PVSystem.pv_XFMR-000352 bus1=bus_XFMR-000352_sec phases=1 kV=0.24 kVA=2511.0 Pmpp=2511.0 irradiance=1 pf=1
New PVSystem.pv_XFMR-000354 bus1=bus_XFMR-000354_sec phases=1 kV=0.24 kVA=481.4 Pmpp=481.4 irradiance=1 pf=1
New PVSystem.pv_XFMR-000355 bus1=bus_XFMR-000355_sec phases=1 kV=0.24 kVA=310.5 Pmpp=310.5 irradiance=1 pf=1
New PVSystem.pv_XFMR-000356 bus1=bus_XFMR-000356_sec phases=1 kV=0.24 kVA=216.0 Pmpp=216.0 irradiance=1 pf=1
New PVSystem.pv_XFMR-000357 bus1=bus_XFMR-000357_sec phases=1 kV=0.24 kVA=141.6 Pmpp=141.6 irradiance=1 pf=1
New PVSystem.pv_XFMR-000360 bus1=bus_XFMR-000360_sec phases=1 kV=0.24 kVA=96.0 Pmpp=96.0 irradiance=1 pf=1
New PVSystem.pv_XFMR-000362 bus1=bus_XFMR-000362_sec phases=1 kV=0.24 kVA=4552.6 Pmpp=4552.6 irradiance=1 pf=1
New PVSystem.pv_XFMR-000363 bus1=bus_XFMR-000363_sec phases=1 kV=0.24 kVA=153.4 Pmpp=153.4 irradiance=1 pf=1
New PVSystem.pv_XFMR-000365 bus1=bus_XFMR-000365_sec phases=1 kV=0.24 kVA=162.4 Pmpp=162.4 irradiance=1 pf=1
New PVSystem.pv_XFMR-000367 bus1=bus_XFMR-000367_sec phases=1 kV=0.24 kVA=2621.7 Pmpp=2621.7 irradiance=1 pf=1
New PVSystem.pv_XFMR-000370 bus1=bus_XFMR-000370_sec phases=1 kV=0.24 kVA=155.4 Pmpp=155.4 irradiance=1 pf=1
New PVSystem.pv_XFMR-000372 bus1=bus_XFMR-000372_sec phases=1 kV=0.24 kVA=522.0 Pmpp=522.0 irradiance=1 pf=1
New PVSystem.pv_XFMR-000373 bus1=bus_XFMR-000373_sec phases=1 kV=0.24 kVA=426.6 Pmpp=426.6 irradiance=1 pf=1
New PVSystem.pv_XFMR-000378 bus1=bus_XFMR-000378_sec phases=1 kV=0.24 kVA=519.6 Pmpp=519.6 irradiance=1 pf=1
New PVSystem.pv_XFMR-000380 bus1=bus_XFMR-000380_sec phases=1 kV=0.24 kVA=116.6 Pmpp=116.6 irradiance=1 pf=1
New PVSystem.pv_XFMR-000382 bus1=bus_XFMR-000382_sec phases=1 kV=0.24 kVA=102.5 Pmpp=102.5 irradiance=1 pf=1
New PVSystem.pv_XFMR-000383 bus1=bus_XFMR-000383_sec phases=1 kV=0.24 kVA=99.2 Pmpp=99.2 irradiance=1 pf=1
New PVSystem.pv_XFMR-000385 bus1=bus_XFMR-000385_sec phases=1 kV=0.24 kVA=135.6 Pmpp=135.6 irradiance=1 pf=1
New PVSystem.pv_XFMR-000388 bus1=bus_XFMR-000388_sec phases=1 kV=0.24 kVA=7474.9 Pmpp=7474.9 irradiance=1 pf=1
New PVSystem.pv_XFMR-000391 bus1=bus_XFMR-000391_sec phases=1 kV=0.24 kVA=1340.0 Pmpp=1340.0 irradiance=1 pf=1
New PVSystem.pv_XFMR-000392 bus1=bus_XFMR-000392_sec phases=1 kV=0.24 kVA=272.0 Pmpp=272.0 irradiance=1 pf=1
New PVSystem.pv_XFMR-000393 bus1=bus_XFMR-000393_sec phases=1 kV=0.24 kVA=324.8 Pmpp=324.8 irradiance=1 pf=1
New PVSystem.pv_XFMR-000402 bus1=bus_XFMR-000402_sec phases=1 kV=0.24 kVA=2160.1 Pmpp=2160.1 irradiance=1 pf=1
New PVSystem.pv_XFMR-000404 bus1=bus_XFMR-000404_sec phases=1 kV=0.24 kVA=7657.5 Pmpp=7657.5 irradiance=1 pf=1
New PVSystem.pv_XFMR-000405 bus1=bus_XFMR-000405_sec phases=1 kV=0.24 kVA=539.3 Pmpp=539.3 irradiance=1 pf=1
New PVSystem.pv_XFMR-000406 bus1=bus_XFMR-000406_sec phases=1 kV=0.24 kVA=241.5 Pmpp=241.5 irradiance=1 pf=1
New PVSystem.pv_XFMR-000411 bus1=bus_XFMR-000411_sec phases=1 kV=0.24 kVA=193.2 Pmpp=193.2 irradiance=1 pf=1
New PVSystem.pv_XFMR-000412 bus1=bus_XFMR-000412_sec phases=1 kV=0.24 kVA=505.8 Pmpp=505.8 irradiance=1 pf=1
New PVSystem.pv_XFMR-000414 bus1=bus_XFMR-000414_sec phases=1 kV=0.24 kVA=193.6 Pmpp=193.6 irradiance=1 pf=1
New PVSystem.pv_XFMR-000415 bus1=bus_XFMR-000415_sec phases=1 kV=0.24 kVA=249.6 Pmpp=249.6 irradiance=1 pf=1
New PVSystem.pv_XFMR-000419 bus1=bus_XFMR-000419_sec phases=1 kV=0.24 kVA=679.8 Pmpp=679.8 irradiance=1 pf=1
New PVSystem.pv_XFMR-000421 bus1=bus_XFMR-000421_sec phases=1 kV=0.24 kVA=105.3 Pmpp=105.3 irradiance=1 pf=1
New PVSystem.pv_XFMR-000422 bus1=bus_XFMR-000422_sec phases=1 kV=0.24 kVA=315.6 Pmpp=315.6 irradiance=1 pf=1
New PVSystem.pv_XFMR-000423 bus1=bus_XFMR-000423_sec phases=1 kV=0.24 kVA=501.0 Pmpp=501.0 irradiance=1 pf=1
New PVSystem.pv_XFMR-000428 bus1=bus_XFMR-000428_sec phases=1 kV=0.24 kVA=288.0 Pmpp=288.0 irradiance=1 pf=1
New PVSystem.pv_XFMR-000429 bus1=bus_XFMR-000429_sec phases=1 kV=0.24 kVA=143.0 Pmpp=143.0 irradiance=1 pf=1
New PVSystem.pv_XFMR-000431 bus1=bus_XFMR-000431_sec phases=1 kV=0.24 kVA=508.6 Pmpp=508.6 irradiance=1 pf=1
New PVSystem.pv_XFMR-000434 bus1=bus_XFMR-000434_sec phases=1 kV=0.24 kVA=275.6 Pmpp=275.6 irradiance=1 pf=1
New PVSystem.pv_XFMR-000436 bus1=bus_XFMR-000436_sec phases=1 kV=0.24 kVA=306.4 Pmpp=306.4 irradiance=1 pf=1
New PVSystem.pv_XFMR-000437 bus1=bus_XFMR-000437_sec phases=1 kV=0.24 kVA=6492.2 Pmpp=6492.2 irradiance=1 pf=1
New PVSystem.pv_XFMR-000438 bus1=bus_XFMR-000438_sec phases=1 kV=0.24 kVA=647.6 Pmpp=647.6 irradiance=1 pf=1
New PVSystem.pv_XFMR-000439 bus1=bus_XFMR-000439_sec phases=1 kV=0.24 kVA=288.3 Pmpp=288.3 irradiance=1 pf=1
New PVSystem.pv_XFMR-000441 bus1=bus_XFMR-000441_sec phases=1 kV=0.24 kVA=256.5 Pmpp=256.5 irradiance=1 pf=1
New PVSystem.pv_XFMR-000443 bus1=bus_XFMR-000443_sec phases=1 kV=0.24 kVA=362.7 Pmpp=362.7 irradiance=1 pf=1
New PVSystem.pv_XFMR-000445 bus1=bus_XFMR-000445_sec phases=1 kV=0.24 kVA=1941.9 Pmpp=1941.9 irradiance=1 pf=1
New PVSystem.pv_XFMR-000446 bus1=bus_XFMR-000446_sec phases=1 kV=0.24 kVA=105.8 Pmpp=105.8 irradiance=1 pf=1
New PVSystem.pv_XFMR-000447 bus1=bus_XFMR-000447_sec phases=1 kV=0.24 kVA=226.2 Pmpp=226.2 irradiance=1 pf=1
New PVSystem.pv_XFMR-000448 bus1=bus_XFMR-000448_sec phases=1 kV=0.24 kVA=1965.6 Pmpp=1965.6 irradiance=1 pf=1
New PVSystem.pv_XFMR-000450 bus1=bus_XFMR-000450_sec phases=1 kV=0.24 kVA=1240.5 Pmpp=1240.5 irradiance=1 pf=1
New PVSystem.pv_XFMR-000452 bus1=bus_XFMR-000452_sec phases=1 kV=0.24 kVA=543.4 Pmpp=543.4 irradiance=1 pf=1
New PVSystem.pv_XFMR-000453 bus1=bus_XFMR-000453_sec phases=1 kV=0.24 kVA=238.0 Pmpp=238.0 irradiance=1 pf=1
New PVSystem.pv_XFMR-000456 bus1=bus_XFMR-000456_sec phases=1 kV=0.24 kVA=356.7 Pmpp=356.7 irradiance=1 pf=1
New PVSystem.pv_XFMR-000458 bus1=bus_XFMR-000458_sec phases=1 kV=0.24 kVA=2661.4 Pmpp=2661.4 irradiance=1 pf=1
New PVSystem.pv_XFMR-000460 bus1=bus_XFMR-000460_sec phases=1 kV=0.24 kVA=8667.3 Pmpp=8667.3 irradiance=1 pf=1
New PVSystem.pv_XFMR-000465 bus1=bus_XFMR-000465_sec phases=1 kV=0.24 kVA=96.0 Pmpp=96.0 irradiance=1 pf=1
New PVSystem.pv_XFMR-000466 bus1=bus_XFMR-000466_sec phases=1 kV=0.24 kVA=11146.8 Pmpp=11146.8 irradiance=1 pf=1
New PVSystem.pv_XFMR-000468 bus1=bus_XFMR-000468_sec phases=1 kV=0.24 kVA=257.4 Pmpp=257.4 irradiance=1 pf=1
New PVSystem.pv_XFMR-000469 bus1=bus_XFMR-000469_sec phases=1 kV=0.24 kVA=332.3 Pmpp=332.3 irradiance=1 pf=1
New PVSystem.pv_XFMR-000471 bus1=bus_XFMR-000471_sec phases=1 kV=0.24 kVA=364.3 Pmpp=364.3 irradiance=1 pf=1
New PVSystem.pv_XFMR-000472 bus1=bus_XFMR-000472_sec phases=1 kV=0.24 kVA=295.8 Pmpp=295.8 irradiance=1 pf=1
New PVSystem.pv_XFMR-000473 bus1=bus_XFMR-000473_sec phases=1 kV=0.24 kVA=576.2 Pmpp=576.2 irradiance=1 pf=1
New PVSystem.pv_XFMR-000474 bus1=bus_XFMR-000474_sec phases=1 kV=0.24 kVA=12824.0 Pmpp=12824.0 irradiance=1 pf=1
New PVSystem.pv_XFMR-000475 bus1=bus_XFMR-000475_sec phases=1 kV=0.24 kVA=392.7 Pmpp=392.7 irradiance=1 pf=1
New PVSystem.pv_XFMR-000479 bus1=bus_XFMR-000479_sec phases=1 kV=0.24 kVA=11264.4 Pmpp=11264.4 irradiance=1 pf=1
New PVSystem.pv_XFMR-000480 bus1=bus_XFMR-000480_sec phases=1 kV=0.24 kVA=401.9 Pmpp=401.9 irradiance=1 pf=1
New PVSystem.pv_XFMR-000481 bus1=bus_XFMR-000481_sec phases=1 kV=0.24 kVA=372.1 Pmpp=372.1 irradiance=1 pf=1
New PVSystem.pv_XFMR-000482 bus1=bus_XFMR-000482_sec phases=1 kV=0.24 kVA=4757.5 Pmpp=4757.5 irradiance=1 pf=1
New PVSystem.pv_XFMR-000484 bus1=bus_XFMR-000484_sec phases=1 kV=0.24 kVA=7631.6 Pmpp=7631.6 irradiance=1 pf=1
New PVSystem.pv_XFMR-000485 bus1=bus_XFMR-000485_sec phases=1 kV=0.24 kVA=357.0 Pmpp=357.0 irradiance=1 pf=1
New PVSystem.pv_XFMR-000486 bus1=bus_XFMR-000486_sec phases=1 kV=0.24 kVA=307.6 Pmpp=307.6 irradiance=1 pf=1
New PVSystem.pv_XFMR-000488 bus1=bus_XFMR-000488_sec phases=1 kV=0.24 kVA=333.5 Pmpp=333.5 irradiance=1 pf=1
New PVSystem.pv_XFMR-000489 bus1=bus_XFMR-000489_sec phases=1 kV=0.24 kVA=172.5 Pmpp=172.5 irradiance=1 pf=1
New PVSystem.pv_XFMR-000490 bus1=bus_XFMR-000490_sec phases=1 kV=0.24 kVA=86.4 Pmpp=86.4 irradiance=1 pf=1
